
     RDKit          2D

 36 38  0  0  0  0  0  0  0  0999 V2000
    7.7598   -0.2393    0.0000 C   0  0  0  0  0  0  0  0  0  0  0  0
    8.6415   -1.4528    0.0000 C   0  0  0  0  0  0  0  0  0  0  0  0
   10.1333   -1.2960    0.0000 C   0  0  0  0  0  0  0  0  0  0  0  0
    8.0314   -2.8231    0.0000 O   0  0  0  0  0  0  0  0  0  0  0  0
    8.9131   -4.0367    0.0000 C   0  0  0  0  0  0  0  0  0  0  0  0
   10.4049   -3.8799    0.0000 O   0  0  0  0  0  0  0  0  0  0  0  0
    8.3030   -5.4070    0.0000 C   0  0  0  0  0  0  0  0  0  0  0  0
    9.1846   -6.6205    0.0000 C   0  0  0  0  0  0  0  0  0  0  0  0
    6.8112   -5.5638    0.0000 N   0  0  0  0  0  0  0  0  0  0  0  0
    6.2011   -6.9341    0.0000 P   0  0  0  0  0  0  0  0  0  0  0  0
    5.5910   -8.3044    0.0000 O   0  0  0  0  0  0  0  0  0  0  0  0
    4.8308   -6.3240    0.0000 O   0  0  0  0  0  0  0  0  0  0  0  0
    4.6740   -4.8322    0.0000 C   0  0  0  0  0  0  0  0  0  0  0  0
    3.3037   -4.2221    0.0000 C   0  0  0  0  0  0  0  0  0  0  0  0
    2.0046   -4.9721    0.0000 C   0  0  0  0  0  0  0  0  0  0  0  0
    0.8899   -3.9684    0.0000 C   0  0  0  0  0  0  0  0  0  0  0  0
    1.5000   -2.5981    0.0000 C   0  0  0  0  0  0  0  0  0  0  0  0
    2.9918   -2.7549    0.0000 O   0  0  0  0  0  0  0  0  0  0  0  0
    0.7500   -1.2990    0.0000 N   0  0  0  0  0  0  0  0  0  0  0  0
    1.5000    0.0000    0.0000 C   0  0  0  0  0  0  0  0  0  0  0  0
    0.7500    1.2990    0.0000 C   0  0  0  0  0  0  0  0  0  0  0  0
   -0.7500    1.2990    0.0000 C   0  0  0  0  0  0  0  0  0  0  0  0
   -1.5000    2.5981    0.0000 O   0  0  0  0  0  0  0  0  0  0  0  0
   -1.5000    0.0000    0.0000 N   0  0  0  0  0  0  0  0  0  0  0  0
   -0.7500   -1.2990    0.0000 C   0  0  0  0  0  0  0  0  0  0  0  0
   -1.5000   -2.5981    0.0000 O   0  0  0  0  0  0  0  0  0  0  0  0
    0.0082   -5.1819    0.0000 C   0  0  0  0  0  0  0  0  0  0  0  0
   -0.4091   -3.2184    0.0000 F   0  0  0  0  0  0  0  0  0  0  0  0
    1.8478   -6.4639    0.0000 O   0  0  0  0  0  0  0  0  0  0  0  0
    7.5714   -7.5442    0.0000 O   0  0  0  0  0  0  0  0  0  0  0  0
    7.7282   -9.0360    0.0000 C   0  0  0  0  0  0  0  0  0  0  0  0
    9.0985   -9.6461    0.0000 C   0  0  0  0  0  0  0  0  0  0  0  0
    9.2553  -11.1379    0.0000 C   0  0  0  0  0  0  0  0  0  0  0  0
    8.0418  -12.0195    0.0000 C   0  0  0  0  0  0  0  0  0  0  0  0
    6.6715  -11.4094    0.0000 C   0  0  0  0  0  0  0  0  0  0  0  0
    6.5147   -9.9176    0.0000 C   0  0  0  0  0  0  0  0  0  0  0  0
  1  2  1  0
  2  3  1  0
  2  4  1  0
  4  5  1  0
  5  6  2  0
  5  7  1  0
  7  8  1  0
  7  9  1  0
  9 10  1  0
 10 11  2  0
 10 12  1  0
 12 13  1  0
 13 14  1  0
 14 15  1  0
 15 16  1  0
 16 17  1  0
 17 18  1  0
 17 19  1  0
 19 20  1  0
 20 21  2  0
 21 22  1  0
 22 23  2  0
 22 24  1  0
 24 25  1  0
 25 26  2  0
 16 27  1  0
 16 28  1  0
 15 29  1  0
 10 30  1  0
 30 31  1  0
 31 32  2  0
 32 33  1  0
 33 34  2  0
 34 35  1  0
 35 36  2  0
 18 14  1  0
 25 19  1  0
 36 31  1  0
M  END

